New Transformer.sb5_p35uhs0_4_trans_439 phases=3 windings=2 wdg=1 conn=delta Kv=69.0 kva=8000.0 %R=0.4808326112068523 bus=sb5_p35uhs0_4_node_5_12 wdg=2 conn=wye Kv=4.0 kva=8000.0 %R=0.4808326112068523 bus=sb5_p35uhs0_4_node_5_13 XHL=6.731656556895932

